FoamFile
{
    version     2.0;
    format      ascii;
    class	file;
    object	boundary;
}
    lowerwall
    {
  type    symmetryPlane;    }

    upperwall
    {
  type	symmetryPlane;    }

    frontAndBack
    {
        type            empty;
    }


